IJAU11/CargasBT_DU09_2022124950_IJAU11_--MBS-1--T--.dss
New "Load.BT_1013320_1_M1" bus1="1001013320.1.2.3.4" phases=3 conn=Delta model=2 kv=0.220000000 kw = 0.218179 pf=0.92 status=variable vmaxpu=1.5 vminpu=0.92 daily="COM1_13_DU"  
New "Load.BT_1013320_1_M2" bus1="1001013320.1.2.3.4" phases=3 conn=Delta model=3 kv=0.220000000 kw = 0.218179 pf=0.92 status=variable vmaxpu=1.5 vminpu=0.92 daily="COM1_13_DU" 
New "Load.BT_1036595_M1" bus1="1001036595.1.2.4" phases=1 conn=Delta model=2 kv=0.220000000 kw = 1.312183 pf=0.92 status=variable vmaxpu=1.5 vminpu=0.92 daily="RES1_19_DU"  
New "Load.BT_1036595_M2" bus1="1001036595.1.2.4" phases=1 conn=Delta model=3 kv=0.220000000 kw = 1.312183 pf=0.92 status=variable vmaxpu=1.5 vminpu=0.92 daily="RES1_19_DU" 
New "Load.BT_4857615_1_M1" bus1="1004857615.1.2.3.4" phases=3 conn=Delta model=2 kv=0.220000000 kw = 1.715092 pf=0.92 status=variable vmaxpu=1.5 vminpu=0.92 daily="RES1_13_DU"  
New "Load.BT_4857615_1_M2" bus1="1004857615.1.2.3.4" phases=3 conn=Delta model=3 kv=0.220000000 kw = 1.715092 pf=0.92 status=variable vmaxpu=1.5 vminpu=0.92 daily="RES1_13_DU" 
New "Load.BT_1024940_1_M1" bus1="1001024940.1.2.3.4" phases=3 conn=Delta model=2 kv=0.220000000 kw = 0.243574 pf=0.92 status=variable vmaxpu=1.5 vminpu=0.92 daily="RES1_2_DU"  
New "Load.BT_1024940_1_M2" bus1="1001024940.1.2.3.4" phases=3 conn=Delta model=3 kv=0.220000000 kw = 0.243574 pf=0.92 status=variable vmaxpu=1.5 vminpu=0.92 daily="RES1_2_DU" 
New "Load.BT_1014356_1_M1" bus1="1001014356.1.4" phases=1 conn=Wye model=2 kv=0.220000000 kw = 0.0904755 pf=0.92 status=variable vmaxpu=1.5 vminpu=0.92 daily="RES1_26_DU"  
New "Load.BT_1014356_1_M2" bus1="1001014356.1.4" phases=1 conn=Wye model=3 kv=0.220000000 kw = 0.0904755 pf=0.92 status=variable vmaxpu=1.5 vminpu=0.92 daily="RES1_26_DU" 
New "Load.BT_1041236_1_M1" bus1="1001041236.1.2.3.4" phases=3 conn=Delta model=2 kv=0.220000000 kw = 0.463978 pf=0.92 status=variable vmaxpu=1.5 vminpu=0.92 daily="RES1_3_DU"  
New "Load.BT_1041236_1_M2" bus1="1001041236.1.2.3.4" phases=3 conn=Delta model=3 kv=0.220000000 kw = 0.463978 pf=0.92 status=variable vmaxpu=1.5 vminpu=0.92 daily="RES1_3_DU" 
New "Load.BT_1011843_M1" bus1="1001011843.3.4" phases=1 conn=Wye model=2 kv=0.220000000 kw = 0.3428945 pf=0.92 status=variable vmaxpu=1.5 vminpu=0.92 daily="RES1_26_DU"  
New "Load.BT_1011843_M2" bus1="1001011843.3.4" phases=1 conn=Wye model=3 kv=0.220000000 kw = 0.3428945 pf=0.92 status=variable vmaxpu=1.5 vminpu=0.92 daily="RES1_26_DU" 

New "Load.BT_1041215_1_M1" bus1="1001041215.1.2.3.4" phases=3 conn=Delta model=2 kv=0.220000000 kw = 0.080348 pf=0.92 status=variable vmaxpu=1.5 vminpu=0.92 daily="COM1_8_DU"  
New "Load.BT_1041215_1_M2" bus1="1001041215.1.2.3.4" phases=3 conn=Delta model=3 kv=0.220000000 kw = 0.080348 pf=0.92 status=variable vmaxpu=1.5 vminpu=0.92 daily="COM1_8_DU" 

New "Load.BT_1018927_M1" bus1="1001018927.1.2.4" phases=1 conn=Delta model=2 kv=0.220000000 kw = 0.5178595 pf=0.92 status=variable vmaxpu=1.5 vminpu=0.92 daily="RES1_4_DU"  
New "Load.BT_1018927_M2" bus1="1001018927.1.2.4" phases=1 conn=Delta model=3 kv=0.220000000 kw = 0.5178595 pf=0.92 status=variable vmaxpu=1.5 vminpu=0.92 daily="RES1_4_DU" 
New "Load.BT_1044939_M1" bus1="1001044939.1.2.3.4" phases=3 conn=Delta model=2 kv=0.220000000 kw = 0.2438165 pf=0.92 status=variable vmaxpu=1.5 vminpu=0.92 daily="RES1_19_DU"  
New "Load.BT_1044939_M2" bus1="1001044939.1.2.3.4" phases=3 conn=Delta model=3 kv=0.220000000 kw = 0.2438165 pf=0.92 status=variable vmaxpu=1.5 vminpu=0.92 daily="RES1_19_DU" 
New "Load.BT_1019802_1_M1" bus1="1001019802.1.2.3.4" phases=3 conn=Delta model=2 kv=0.220000000 kw = 0.117951 pf=0.92 status=variable vmaxpu=1.5 vminpu=0.92 daily="COM1_5_DU"  
New "Load.BT_1019802_1_M2" bus1="1001019802.1.2.3.4" phases=3 conn=Delta model=3 kv=0.220000000 kw = 0.117951 pf=0.92 status=variable vmaxpu=1.5 vminpu=0.92 daily="COM1_5_DU" 

New "Load.BT_1020733_1_M1" bus1="1001020733.1.2.3.4" phases=3 conn=Delta model=2 kv=0.220000000 kw = 0.267097 pf=0.92 status=variable vmaxpu=1.5 vminpu=0.92 daily="RES1_10_DU"  
New "Load.BT_1020733_1_M2" bus1="1001020733.1.2.3.4" phases=3 conn=Delta model=3 kv=0.220000000 kw = 0.267097 pf=0.92 status=variable vmaxpu=1.5 vminpu=0.92 daily="RES1_10_DU" 
New "Load.BT_996534_1_M1" bus1="1000996534.1.2.4" phases=1 conn=Delta model=2 kv=0.220000000 kw = 0.0220305 pf=0.92 status=variable vmaxpu=1.5 vminpu=0.92 daily="RES1_18_DU"  
New "Load.BT_996534_1_M2" bus1="1000996534.1.2.4" phases=1 conn=Delta model=3 kv=0.220000000 kw = 0.0220305 pf=0.92 status=variable vmaxpu=1.5 vminpu=0.92 daily="RES1_18_DU" 
New "Load.BT_994770_M1" bus1="1000994770.3.4" phases=1 conn=Wye model=2 kv=0.220000000 kw = 0.408461 pf=0.92 status=variable vmaxpu=1.5 vminpu=0.92 daily="RES1_1_DU"  
New "Load.BT_994770_M2" bus1="1000994770.3.4" phases=1 conn=Wye model=3 kv=0.220000000 kw = 0.408461 pf=0.92 status=variable vmaxpu=1.5 vminpu=0.92 daily="RES1_1_DU" 

New "Load.BT_1036700_1_M1" bus1="1001036700.1.2.3.4" phases=3 conn=Delta model=2 kv=0.220000000 kw = 0.6274175 pf=0.92 status=variable vmaxpu=1.5 vminpu=0.92 daily="RES1_11_DU"  
New "Load.BT_1036700_1_M2" bus1="1001036700.1.2.3.4" phases=3 conn=Delta model=3 kv=0.220000000 kw = 0.6274175 pf=0.92 status=variable vmaxpu=1.5 vminpu=0.92 daily="RES1_11_DU" 
New "Load.BT_4403154_1_M1" bus1="1004403154.1.2.3.4" phases=3 conn=Delta model=2 kv=0.220000000 kw = 0.212405 pf=0.92 status=variable vmaxpu=1.5 vminpu=0.92 daily="RES1_2_DU"  
New "Load.BT_4403154_1_M2" bus1="1004403154.1.2.3.4" phases=3 conn=Delta model=3 kv=0.220000000 kw = 0.212405 pf=0.92 status=variable vmaxpu=1.5 vminpu=0.92 daily="RES1_2_DU" 
New "Load.BT_1037869_M1" bus1="1001037869.1.2.3.4" phases=3 conn=Delta model=2 kv=0.220000000 kw = 0.635324 pf=0.92 status=variable vmaxpu=1.5 vminpu=0.92 daily="RES1_9_DU"  
New "Load.BT_1037869_M2" bus1="1001037869.1.2.3.4" phases=3 conn=Delta model=3 kv=0.220000000 kw = 0.635324 pf=0.92 status=variable vmaxpu=1.5 vminpu=0.92 daily="RES1_9_DU" 
New "Load.BT_1007510_M1" bus1="1001007510.1.4" phases=1 conn=Wye model=2 kv=0.220000000 kw = 0.4293835 pf=0.92 status=variable vmaxpu=1.5 vminpu=0.92 daily="RES1_1_DU"  
New "Load.BT_1007510_M2" bus1="1001007510.1.4" phases=1 conn=Wye model=3 kv=0.220000000 kw = 0.4293835 pf=0.92 status=variable vmaxpu=1.5 vminpu=0.92 daily="RES1_1_DU" 
New "Load.BT_10091795_M1" bus1="1010091795.1.2.4" phases=1 conn=Delta model=2 kv=0.240000000 kw = 0.630475 pf=0.92 status=variable vmaxpu=1.5 vminpu=0.92 daily="RES1_4_DU"  
New "Load.BT_10091795_M2" bus1="1010091795.1.2.4" phases=1 conn=Delta model=3 kv=0.240000000 kw = 0.630475 pf=0.92 status=variable vmaxpu=1.5 vminpu=0.92 daily="RES1_4_DU" 
New "Load.BT_1012018_M1" bus1="1001012018.2.4" phases=1 conn=Wye model=2 kv=0.220000000 kw = 0.3152615 pf=0.92 status=variable vmaxpu=1.5 vminpu=0.92 daily="RES1_1_DU"  
New "Load.BT_1012018_M2" bus1="1001012018.2.4" phases=1 conn=Wye model=3 kv=0.220000000 kw = 0.3152615 pf=0.92 status=variable vmaxpu=1.5 vminpu=0.92 daily="RES1_1_DU" 

New "Load.BT_1023057_1_M1" bus1="1001023057.1.2.3.4" phases=3 conn=Delta model=2 kv=0.220000000 kw = 0.0290685 pf=0.92 status=variable vmaxpu=1.5 vminpu=0.92 daily="RES1_11_DU"  
New "Load.BT_1023057_1_M2" bus1="1001023057.1.2.3.4" phases=3 conn=Delta model=3 kv=0.220000000 kw = 0.0290685 pf=0.92 status=variable vmaxpu=1.5 vminpu=0.92 daily="RES1_11_DU" 
New "Load.BT_10237022_1_M1" bus1="1010237022.1.2.3.4" phases=3 conn=Delta model=2 kv=0.220000000 kw = 0.171286 pf=0.92 status=variable vmaxpu=1.5 vminpu=0.92 daily="RES1_17_DU"  
New "Load.BT_10237022_1_M2" bus1="1010237022.1.2.3.4" phases=3 conn=Delta model=3 kv=0.220000000 kw = 0.171286 pf=0.92 status=variable vmaxpu=1.5 vminpu=0.92 daily="RES1_17_DU" 
New "Load.BT_11171629_M1" bus1="1011171629.3.1.4" phases=1 conn=Delta model=2 kv=0.220000000 kw = 0.0 pf=0.92 status=variable vmaxpu=1.5 vminpu=0.92 daily="RES1_6_DU"  
New "Load.BT_11171629_M2" bus1="1011171629.3.1.4" phases=1 conn=Delta model=3 kv=0.220000000 kw = 0.0 pf=0.92 status=variable vmaxpu=1.5 vminpu=0.92 daily="RES1_6_DU" 
New "Load.BT_1011332_1_M1" bus1="1001011332.3.4" phases=1 conn=Wye model=2 kv=0.220000000 kw = 0.3018095 pf=0.92 status=variable vmaxpu=1.5 vminpu=0.92 daily="COM1_3_DU"  
New "Load.BT_1011332_1_M2" bus1="1001011332.3.4" phases=1 conn=Wye model=3 kv=0.220000000 kw = 0.3018095 pf=0.92 status=variable vmaxpu=1.5 vminpu=0.92 daily="COM1_3_DU" 
New "Load.BT_1020299_1_M1" bus1="1001020299.2.4" phases=1 conn=Wye model=2 kv=0.120000000 kw = 0.1039355 pf=0.92 status=variable vmaxpu=1.5 vminpu=0.92 daily="RES1_4_DU"  
New "Load.BT_1020299_1_M2" bus1="1001020299.2.4" phases=1 conn=Wye model=3 kv=0.120000000 kw = 0.1039355 pf=0.92 status=variable vmaxpu=1.5 vminpu=0.92 daily="RES1_4_DU" 
New "Load.BT_1238209_1_M1" bus1="1001238209.3.1.4" phases=1 conn=Delta model=2 kv=0.220000000 kw = 0.42608 pf=0.92 status=variable vmaxpu=1.5 vminpu=0.92 daily="RES1_23_DU"  
New "Load.BT_1238209_1_M2" bus1="1001238209.3.1.4" phases=1 conn=Delta model=3 kv=0.220000000 kw = 0.42608 pf=0.92 status=variable vmaxpu=1.5 vminpu=0.92 daily="RES1_23_DU" 
New "Load.BT_11133959_M1" bus1="1011133959.1.2.3.4" phases=3 conn=Delta model=2 kv=0.220000000 kw = 0.2448495 pf=0.92 status=variable vmaxpu=1.5 vminpu=0.92 daily="RES1_17_DU"  
New "Load.BT_11133959_M2" bus1="1011133959.1.2.3.4" phases=3 conn=Delta model=3 kv=0.220000000 kw = 0.2448495 pf=0.92 status=variable vmaxpu=1.5 vminpu=0.92 daily="RES1_17_DU" 
New "Load.BT_1017744_1_M1" bus1="1001017744.3.1.4" phases=1 conn=Delta model=2 kv=0.220000000 kw = 0.3135385 pf=0.92 status=variable vmaxpu=1.5 vminpu=0.92 daily="COM1_11_DU"  
New "Load.BT_1017744_1_M2" bus1="1001017744.3.1.4" phases=1 conn=Delta model=3 kv=0.220000000 kw = 0.3135385 pf=0.92 status=variable vmaxpu=1.5 vminpu=0.92 daily="COM1_11_DU" 
New "Load.BT_1030169_M1" bus1="1001030169.3.1.4" phases=1 conn=Delta model=2 kv=0.220000000 kw = 1.585647 pf=0.92 status=variable vmaxpu=1.5 vminpu=0.92 daily="RES1_2_DU"  
New "Load.BT_1030169_M2" bus1="1001030169.3.1.4" phases=1 conn=Delta model=3 kv=0.220000000 kw = 1.585647 pf=0.92 status=variable vmaxpu=1.5 vminpu=0.92 daily="RES1_2_DU" 
New "Load.BT_998347_M1" bus1="1000998347.2.4" phases=1 conn=Wye model=2 kv=0.120000000 kw = 0.461757 pf=0.92 status=variable vmaxpu=1.5 vminpu=0.92 daily="RES1_2_DU"  
New "Load.BT_998347_M2" bus1="1000998347.2.4" phases=1 conn=Wye model=3 kv=0.120000000 kw = 0.461757 pf=0.92 status=variable vmaxpu=1.5 vminpu=0.92 daily="RES1_2_DU" 
New "Load.BT_1042573_M1" bus1="1001042573.1.4" phases=1 conn=Wye model=2 kv=0.220000000 kw = 0.504606 pf=0.92 status=variable vmaxpu=1.5 vminpu=0.92 daily="RES1_19_DU"  
New "Load.BT_1042573_M2" bus1="1001042573.1.4" phases=1 conn=Wye model=3 kv=0.220000000 kw = 0.504606 pf=0.92 status=variable vmaxpu=1.5 vminpu=0.92 daily="RES1_19_DU" 
New "Load.BT_1013796_1_M1" bus1="1001013796.1.2.3.4" phases=3 conn=Delta model=2 kv=0.220000000 kw = 0.290861 pf=0.92 status=variable vmaxpu=1.5 vminpu=0.92 daily="RES1_2_DU"  
New "Load.BT_1013796_1_M2" bus1="1001013796.1.2.3.4" phases=3 conn=Delta model=3 kv=0.220000000 kw = 0.290861 pf=0.92 status=variable vmaxpu=1.5 vminpu=0.92 daily="RES1_2_DU" 
New "Load.BT_1045807_M1" bus1="1001045807.1.2.3.4" phases=3 conn=Delta model=2 kv=0.220000000 kw = 0.374828 pf=0.92 status=variable vmaxpu=1.5 vminpu=0.92 daily="RES1_19_DU"  
New "Load.BT_1045807_M2" bus1="1001045807.1.2.3.4" phases=3 conn=Delta model=3 kv=0.220000000 kw = 0.374828 pf=0.92 status=variable vmaxpu=1.5 vminpu=0.92 daily="RES1_19_DU" 
New "Load.BT_1012620_1_M1" bus1="1001012620.1.2.4" phases=1 conn=Delta model=2 kv=0.220000000 kw = 0.126351 pf=0.92 status=variable vmaxpu=1.5 vminpu=0.92 daily="RES1_11_DU"  
New "Load.BT_1012620_1_M2" bus1="1001012620.1.2.4" phases=1 conn=Delta model=3 kv=0.220000000 kw = 0.126351 pf=0.92 status=variable vmaxpu=1.5 vminpu=0.92 daily="RES1_11_DU" 
New "Load.BT_1009666_1_M1" bus1="1001009666.1.4" phases=1 conn=Wye model=2 kv=0.220000000 kw = 0.1294615 pf=0.92 status=variable vmaxpu=1.5 vminpu=0.92 daily="RES1_11_DU"  
New "Load.BT_1009666_1_M2" bus1="1001009666.1.4" phases=1 conn=Wye model=3 kv=0.220000000 kw = 0.1294615 pf=0.92 status=variable vmaxpu=1.5 vminpu=0.92 daily="RES1_11_DU" 
New "Load.BT_10768779_M1" bus1="1010768779.3.1.4" phases=1 conn=Delta model=2 kv=0.220000000 kw = 1.056012 pf=0.92 status=variable vmaxpu=1.5 vminpu=0.92 daily="RES1_6_DU"  
New "Load.BT_10768779_M2" bus1="1010768779.3.1.4" phases=1 conn=Delta model=3 kv=0.220000000 kw = 1.056012 pf=0.92 status=variable vmaxpu=1.5 vminpu=0.92 daily="RES1_6_DU" 
New "Load.BT_4857615_2_M1" bus1="1004857615.1.2.3.4" phases=3 conn=Delta model=2 kv=0.220000000 kw = 0.791665 pf=0.92 status=variable vmaxpu=1.5 vminpu=0.92 daily="RES1_11_DU"  
New "Load.BT_4857615_2_M2" bus1="1004857615.1.2.3.4" phases=3 conn=Delta model=3 kv=0.220000000 kw = 0.791665 pf=0.92 status=variable vmaxpu=1.5 vminpu=0.92 daily="RES1_11_DU" 
New "Load.BT_1016904_M1" bus1="1001016904.3.4" phases=1 conn=Wye model=2 kv=0.220000000 kw = 0.4435445 pf=0.92 status=variable vmaxpu=1.5 vminpu=0.92 daily="RES1_7_DU"  
New "Load.BT_1016904_M2" bus1="1001016904.3.4" phases=1 conn=Wye model=3 kv=0.220000000 kw = 0.4435445 pf=0.92 status=variable vmaxpu=1.5 vminpu=0.92 daily="RES1_7_DU" 
New "Load.BT_3953810_1_M1" bus1="1003953810.1.2.3.4" phases=3 conn=Delta model=2 kv=0.220000000 kw = 0.3213125 pf=0.92 status=variable vmaxpu=1.5 vminpu=0.92 daily="RES1_6_DU"  
New "Load.BT_3953810_1_M2" bus1="1003953810.1.2.3.4" phases=3 conn=Delta model=3 kv=0.220000000 kw = 0.3213125 pf=0.92 status=variable vmaxpu=1.5 vminpu=0.92 daily="RES1_6_DU" 
New "Load.BT_1041201_M1" bus1="1001041201.1.2.3.4" phases=3 conn=Delta model=2 kv=0.220000000 kw = 0.258986 pf=0.92 status=variable vmaxpu=1.5 vminpu=0.92 daily="RES1_19_DU"  
New "Load.BT_1041201_M2" bus1="1001041201.1.2.3.4" phases=3 conn=Delta model=3 kv=0.220000000 kw = 0.258986 pf=0.92 status=variable vmaxpu=1.5 vminpu=0.92 daily="RES1_19_DU" 
New "Load.BT_11088406_M1" bus1="1011088406.1.2.4" phases=1 conn=Delta model=2 kv=0.220000000 kw = 0.2884015 pf=0.92 status=variable vmaxpu=1.5 vminpu=0.92 daily="RES1_2_DU"  
New "Load.BT_11088406_M2" bus1="1011088406.1.2.4" phases=1 conn=Delta model=3 kv=0.220000000 kw = 0.2884015 pf=0.92 status=variable vmaxpu=1.5 vminpu=0.92 daily="RES1_2_DU" 
New "Load.BT_1023960_M1" bus1="1001023960.1.2.3.4" phases=3 conn=Delta model=2 kv=0.220000000 kw = 1.9601315 pf=0.92 status=variable vmaxpu=1.5 vminpu=0.92 daily="COM1_5_DU"  
New "Load.BT_1023960_M2" bus1="1001023960.1.2.3.4" phases=3 conn=Delta model=3 kv=0.220000000 kw = 1.9601315 pf=0.92 status=variable vmaxpu=1.5 vminpu=0.92 daily="COM1_5_DU" 
New "Load.BT_10293138_M1" bus1="1010293138.1.2.4" phases=1 conn=Delta model=2 kv=0.220000000 kw = 0.014694 pf=0.92 status=variable vmaxpu=1.5 vminpu=0.92 daily="RES1_8_DU"  
New "Load.BT_10293138_M2" bus1="1010293138.1.2.4" phases=1 conn=Delta model=3 kv=0.220000000 kw = 0.014694 pf=0.92 status=variable vmaxpu=1.5 vminpu=0.92 daily="RES1_8_DU" 
New "Load.BT_1007531_1_M1" bus1="1001007531.1.4" phases=1 conn=Wye model=2 kv=0.220000000 kw = 0.211388 pf=0.92 status=variable vmaxpu=1.5 vminpu=0.92 daily="RES1_11_DU"  
New "Load.BT_1007531_1_M2" bus1="1001007531.1.4" phases=1 conn=Wye model=3 kv=0.220000000 kw = 0.211388 pf=0.92 status=variable vmaxpu=1.5 vminpu=0.92 daily="RES1_11_DU" 
New "Load.BT_1015063_M1" bus1="1001015063.3.4" phases=1 conn=Wye model=2 kv=0.220000000 kw = 0.1824745 pf=0.92 status=variable vmaxpu=1.5 vminpu=0.92 daily="RES1_26_DU"  
New "Load.BT_1015063_M2" bus1="1001015063.3.4" phases=1 conn=Wye model=3 kv=0.220000000 kw = 0.1824745 pf=0.92 status=variable vmaxpu=1.5 vminpu=0.92 daily="RES1_26_DU" 

New "Load.BT_1017604_1_M1" bus1="1001017604.1.2.3.4" phases=3 conn=Delta model=2 kv=0.220000000 kw = 0.015085 pf=0.92 status=variable vmaxpu=1.5 vminpu=0.92 daily="COM1_11_DU"  
New "Load.BT_1017604_1_M2" bus1="1001017604.1.2.3.4" phases=3 conn=Delta model=3 kv=0.220000000 kw = 0.015085 pf=0.92 status=variable vmaxpu=1.5 vminpu=0.92 daily="COM1_11_DU" 
New "Load.BT_1007657_1_M1" bus1="1001007657.3.1.4" phases=1 conn=Delta model=2 kv=0.220000000 kw = 0.409808 pf=0.92 status=variable vmaxpu=1.5 vminpu=0.92 daily="RES1_11_DU"  
New "Load.BT_1007657_1_M2" bus1="1001007657.3.1.4" phases=1 conn=Delta model=3 kv=0.220000000 kw = 0.409808 pf=0.92 status=variable vmaxpu=1.5 vminpu=0.92 daily="RES1_11_DU" 
New "Load.BT_1033809_1_M1" bus1="1001033809.1.2.3.4" phases=3 conn=Delta model=2 kv=0.220000000 kw = 0.741359 pf=0.92 status=variable vmaxpu=1.5 vminpu=0.92 daily="RES1_2_DU"  
New "Load.BT_1033809_1_M2" bus1="1001033809.1.2.3.4" phases=3 conn=Delta model=3 kv=0.220000000 kw = 0.741359 pf=0.92 status=variable vmaxpu=1.5 vminpu=0.92 daily="RES1_2_DU" 
New "Load.BT_10382334_1_M1" bus1="1010382334.1.2.3.4" phases=3 conn=Delta model=2 kv=0.220000000 kw = 0.2539935 pf=0.92 status=variable vmaxpu=1.5 vminpu=0.92 daily="RES1_21_DU"  
New "Load.BT_10382334_1_M2" bus1="1010382334.1.2.3.4" phases=3 conn=Delta model=3 kv=0.220000000 kw = 0.2539935 pf=0.92 status=variable vmaxpu=1.5 vminpu=0.92 daily="RES1_21_DU" 
New "Load.BT_1013796_2_M1" bus1="1001013796.1.2.3.4" phases=3 conn=Delta model=2 kv=0.220000000 kw = 0.149682 pf=0.92 status=variable vmaxpu=1.5 vminpu=0.92 daily="RES1_2_DU"  
New "Load.BT_1013796_2_M2" bus1="1001013796.1.2.3.4" phases=3 conn=Delta model=3 kv=0.220000000 kw = 0.149682 pf=0.92 status=variable vmaxpu=1.5 vminpu=0.92 daily="RES1_2_DU" 
New "Load.BT_1011024_1_M1" bus1="1001011024.1.2.3.4" phases=3 conn=Delta model=2 kv=0.220000000 kw = 0.4642755 pf=0.92 status=variable vmaxpu=1.5 vminpu=0.92 daily="RES1_9_DU"  
New "Load.BT_1011024_1_M2" bus1="1001011024.1.2.3.4" phases=3 conn=Delta model=3 kv=0.220000000 kw = 0.4642755 pf=0.92 status=variable vmaxpu=1.5 vminpu=0.92 daily="RES1_9_DU" 

New "Load.BT_1018759_M1" bus1="1001018759.1.2.4" phases=1 conn=Delta model=2 kv=0.220000000 kw = 0.3343705 pf=0.92 status=variable vmaxpu=1.5 vminpu=0.92 daily="COM1_17_DU"  
New "Load.BT_1018759_M2" bus1="1001018759.1.2.4" phases=1 conn=Delta model=3 kv=0.220000000 kw = 0.3343705 pf=0.92 status=variable vmaxpu=1.5 vminpu=0.92 daily="COM1_17_DU" 
New "Load.BT_10279082_M1" bus1="1010279082.1.2.3.4" phases=3 conn=Delta model=2 kv=0.220000000 kw = 1.108035 pf=0.92 status=variable vmaxpu=1.5 vminpu=0.92 daily="RES1_1_DU"  
New "Load.BT_10279082_M2" bus1="1010279082.1.2.3.4" phases=3 conn=Delta model=3 kv=0.220000000 kw = 1.108035 pf=0.92 status=variable vmaxpu=1.5 vminpu=0.92 daily="RES1_1_DU" 
New "Load.BT_1219407_1_M1" bus1="1001219407.1.2.3.4" phases=3 conn=Delta model=2 kv=0.220000000 kw = 0.6964785 pf=0.92 status=variable vmaxpu=1.5 vminpu=0.92 daily="COM1_14_DU"  
New "Load.BT_1219407_1_M2" bus1="1001219407.1.2.3.4" phases=3 conn=Delta model=3 kv=0.220000000 kw = 0.6964785 pf=0.92 status=variable vmaxpu=1.5 vminpu=0.92 daily="COM1_14_DU" 
New "Load.BT_1034719_M1" bus1="1001034719.1.2.3.4" phases=3 conn=Delta model=2 kv=0.220000000 kw = 0.4332925 pf=0.92 status=variable vmaxpu=1.5 vminpu=0.92 daily="RES1_5_DU"  
New "Load.BT_1034719_M2" bus1="1001034719.1.2.3.4" phases=3 conn=Delta model=3 kv=0.220000000 kw = 0.4332925 pf=0.92 status=variable vmaxpu=1.5 vminpu=0.92 daily="RES1_5_DU" 
New "Load.BT_1042216_1_M1" bus1="1001042216.1.2.3.4" phases=3 conn=Delta model=2 kv=0.220000000 kw = 0.4677825 pf=0.92 status=variable vmaxpu=1.5 vminpu=0.92 daily="RES1_19_DU"  
New "Load.BT_1042216_1_M2" bus1="1001042216.1.2.3.4" phases=3 conn=Delta model=3 kv=0.220000000 kw = 0.4677825 pf=0.92 status=variable vmaxpu=1.5 vminpu=0.92 daily="RES1_19_DU" 
New "Load.BT_1007412_1_M1" bus1="1001007412.3.1.4" phases=1 conn=Delta model=2 kv=0.220000000 kw = 0.0 pf=0.92 status=variable vmaxpu=1.5 vminpu=0.92 daily="RES1_1_DU"  
New "Load.BT_1007412_1_M2" bus1="1001007412.3.1.4" phases=1 conn=Delta model=3 kv=0.220000000 kw = 0.0 pf=0.92 status=variable vmaxpu=1.5 vminpu=0.92 daily="RES1_1_DU" 
New "Load.BT_10367201_1_M1" bus1="1010367201.1.2.4" phases=1 conn=Delta model=2 kv=0.220000000 kw = 0.426268 pf=0.92 status=variable vmaxpu=1.5 vminpu=0.92 daily="RES1_4_DU"  
New "Load.BT_10367201_1_M2" bus1="1010367201.1.2.4" phases=1 conn=Delta model=3 kv=0.220000000 kw = 0.426268 pf=0.92 status=variable vmaxpu=1.5 vminpu=0.92 daily="RES1_4_DU" 
New "Load.BT_1025017_1_M1" bus1="1001025017.1.2.3.4" phases=3 conn=Delta model=2 kv=0.220000000 kw = 0.375272 pf=0.92 status=variable vmaxpu=1.5 vminpu=0.92 daily="RES1_2_DU"  
New "Load.BT_1025017_1_M2" bus1="1001025017.1.2.3.4" phases=3 conn=Delta model=3 kv=0.220000000 kw = 0.375272 pf=0.92 status=variable vmaxpu=1.5 vminpu=0.92 daily="RES1_2_DU" 
New "Load.BT_1017597_1_M1" bus1="1001017597.3.4" phases=1 conn=Wye model=2 kv=0.220000000 kw = 0.0 pf=0.92 status=variable vmaxpu=1.5 vminpu=0.92 daily="COM1_7_DU"  
New "Load.BT_1017597_1_M2" bus1="1001017597.3.4" phases=1 conn=Wye model=3 kv=0.220000000 kw = 0.0 pf=0.92 status=variable vmaxpu=1.5 vminpu=0.92 daily="COM1_7_DU" 

New "Load.BT_994315_1_M1" bus1="1000994315.2.4" phases=1 conn=Wye model=2 kv=0.220000000 kw = 0.3108715 pf=0.92 status=variable vmaxpu=1.5 vminpu=0.92 daily="RES1_14_DU"  
New "Load.BT_994315_1_M2" bus1="1000994315.2.4" phases=1 conn=Wye model=3 kv=0.220000000 kw = 0.3108715 pf=0.92 status=variable vmaxpu=1.5 vminpu=0.92 daily="RES1_14_DU" 
New "Load.BT_11308469_M1" bus1="1011308469.1.2.3.4" phases=3 conn=Delta model=2 kv=0.220000000 kw = 0.2696915 pf=0.92 status=variable vmaxpu=1.5 vminpu=0.92 daily="RES1_7_DU"  
New "Load.BT_11308469_M2" bus1="1011308469.1.2.3.4" phases=3 conn=Delta model=3 kv=0.220000000 kw = 0.2696915 pf=0.92 status=variable vmaxpu=1.5 vminpu=0.92 daily="RES1_7_DU" 
New "Load.BT_1021643_M1" bus1="1001021643.2.3.4" phases=1 conn=Delta model=2 kv=0.220000000 kw = 0.2104235 pf=0.92 status=variable vmaxpu=1.5 vminpu=0.92 daily="COM1_11_DU"  
New "Load.BT_1021643_M2" bus1="1001021643.2.3.4" phases=1 conn=Delta model=3 kv=0.220000000 kw = 0.2104235 pf=0.92 status=variable vmaxpu=1.5 vminpu=0.92 daily="COM1_11_DU" 
New "Load.BT_4776198_M1" bus1="1004776198.1.4" phases=1 conn=Wye model=2 kv=0.220000000 kw = 0.135875 pf=0.92 status=variable vmaxpu=1.5 vminpu=0.92 daily="RES1_23_DU"  
New "Load.BT_4776198_M2" bus1="1004776198.1.4" phases=1 conn=Wye model=3 kv=0.220000000 kw = 0.135875 pf=0.92 status=variable vmaxpu=1.5 vminpu=0.92 daily="RES1_23_DU" 
New "Load.BT_1021118_M1" bus1="1001021118.1.2.3.4" phases=3 conn=Delta model=2 kv=0.220000000 kw = 0.415828 pf=0.92 status=variable vmaxpu=1.5 vminpu=0.92 daily="COM1_6_DU"  
New "Load.BT_1021118_M2" bus1="1001021118.1.2.3.4" phases=3 conn=Delta model=3 kv=0.220000000 kw = 0.415828 pf=0.92 status=variable vmaxpu=1.5 vminpu=0.92 daily="COM1_6_DU" 
New "Load.BT_1012627_M1" bus1="1001012627.1.4" phases=1 conn=Wye model=2 kv=0.220000000 kw = 0.522691 pf=0.92 status=variable vmaxpu=1.5 vminpu=0.92 daily="RES1_26_DU"  
New "Load.BT_1012627_M2" bus1="1001012627.1.4" phases=1 conn=Wye model=3 kv=0.220000000 kw = 0.522691 pf=0.92 status=variable vmaxpu=1.5 vminpu=0.92 daily="RES1_26_DU" 
New "Load.BT_1043392_M1" bus1="1001043392.1.2.3.4" phases=3 conn=Delta model=2 kv=0.220000000 kw = 0.467504 pf=0.92 status=variable vmaxpu=1.5 vminpu=0.92 daily="RES1_19_DU"  
New "Load.BT_1043392_M2" bus1="1001043392.1.2.3.4" phases=3 conn=Delta model=3 kv=0.220000000 kw = 0.467504 pf=0.92 status=variable vmaxpu=1.5 vminpu=0.92 daily="RES1_19_DU" 
New "Load.BT_4087006_M1" bus1="1004087006.1.2.4" phases=1 conn=Delta model=2 kv=0.220000000 kw = 0.456009 pf=0.92 status=variable vmaxpu=1.5 vminpu=0.92 daily="RES1_2_DU"  
New "Load.BT_4087006_M2" bus1="1004087006.1.2.4" phases=1 conn=Delta model=3 kv=0.220000000 kw = 0.456009 pf=0.92 status=variable vmaxpu=1.5 vminpu=0.92 daily="RES1_2_DU" 
New "Load.BT_4807852_M1" bus1="1004807852.1.2.4" phases=1 conn=Delta model=2 kv=0.220000000 kw = 0.4475735 pf=0.92 status=variable vmaxpu=1.5 vminpu=0.92 daily="RES1_12_DU"  
New "Load.BT_4807852_M2" bus1="1004807852.1.2.4" phases=1 conn=Delta model=3 kv=0.220000000 kw = 0.4475735 pf=0.92 status=variable vmaxpu=1.5 vminpu=0.92 daily="RES1_12_DU" 
New "Load.BT_1030022_M1" bus1="1001030022.2.4" phases=1 conn=Wye model=2 kv=0.220000000 kw = 0.5799145 pf=0.92 status=variable vmaxpu=1.5 vminpu=0.92 daily="RES1_2_DU"  
New "Load.BT_1030022_M2" bus1="1001030022.2.4" phases=1 conn=Wye model=3 kv=0.220000000 kw = 0.5799145 pf=0.92 status=variable vmaxpu=1.5 vminpu=0.92 daily="RES1_2_DU" 

New "Load.BT_4464467_M1" bus1="1004464467.1.2.4" phases=1 conn=Delta model=2 kv=0.220000000 kw = 0.6180755 pf=0.92 status=variable vmaxpu=1.5 vminpu=0.92 daily="RES1_2_DU"  
New "Load.BT_4464467_M2" bus1="1004464467.1.2.4" phases=1 conn=Delta model=3 kv=0.220000000 kw = 0.6180755 pf=0.92 status=variable vmaxpu=1.5 vminpu=0.92 daily="RES1_2_DU" 
New "Load.BT_1005256_M1" bus1="1001005256.3.4" phases=1 conn=Wye model=2 kv=0.220000000 kw = 0.211824 pf=0.92 status=variable vmaxpu=1.5 vminpu=0.92 daily="RES1_23_DU"  
New "Load.BT_1005256_M2" bus1="1001005256.3.4" phases=1 conn=Wye model=3 kv=0.220000000 kw = 0.211824 pf=0.92 status=variable vmaxpu=1.5 vminpu=0.92 daily="RES1_23_DU" 
New "Load.BT_4857615_3_M1" bus1="1004857615.1.2.3.4" phases=3 conn=Delta model=2 kv=0.220000000 kw = 0.7605575 pf=0.92 status=variable vmaxpu=1.5 vminpu=0.92 daily="RES1_16_DU"  
New "Load.BT_4857615_3_M2" bus1="1004857615.1.2.3.4" phases=3 conn=Delta model=3 kv=0.220000000 kw = 0.7605575 pf=0.92 status=variable vmaxpu=1.5 vminpu=0.92 daily="RES1_16_DU" 
New "Load.BT_1033718_1_M1" bus1="1001033718.1.2.3.4" phases=3 conn=Delta model=2 kv=0.220000000 kw = 0.5500195 pf=0.92 status=variable vmaxpu=1.5 vminpu=0.92 daily="RES1_2_DU"  
New "Load.BT_1033718_1_M2" bus1="1001033718.1.2.3.4" phases=3 conn=Delta model=3 kv=0.220000000 kw = 0.5500195 pf=0.92 status=variable vmaxpu=1.5 vminpu=0.92 daily="RES1_2_DU" 
New "Load.BT_1025507_1_M1" bus1="1001025507.1.2.4" phases=1 conn=Delta model=2 kv=0.220000000 kw = 0.410948 pf=0.92 status=variable vmaxpu=1.5 vminpu=0.92 daily="RES1_4_DU"  
New "Load.BT_1025507_1_M2" bus1="1001025507.1.2.4" phases=1 conn=Delta model=3 kv=0.220000000 kw = 0.410948 pf=0.92 status=variable vmaxpu=1.5 vminpu=0.92 daily="RES1_4_DU" 
New "Load.BT_10139470_1_M1" bus1="1010139470.1.2.3.4" phases=3 conn=Delta model=2 kv=0.220000000 kw = 0.0248 pf=0.92 status=variable vmaxpu=1.5 vminpu=0.92 daily="RES1_17_DU"  
New "Load.BT_10139470_1_M2" bus1="1010139470.1.2.3.4" phases=3 conn=Delta model=3 kv=0.220000000 kw = 0.0248 pf=0.92 status=variable vmaxpu=1.5 vminpu=0.92 daily="RES1_17_DU" 
New "Load.BT_1024485_1_M1" bus1="1001024485.1.2.4" phases=1 conn=Delta model=2 kv=0.240000000 kw = 0.1865885 pf=0.92 status=variable vmaxpu=1.5 vminpu=0.92 daily="RES1_12_DU"  
New "Load.BT_1024485_1_M2" bus1="1001024485.1.2.4" phases=1 conn=Delta model=3 kv=0.240000000 kw = 0.1865885 pf=0.92 status=variable vmaxpu=1.5 vminpu=0.92 daily="RES1_12_DU" 
New "Load.BT_1041327_1_M1" bus1="1001041327.1.2.3.4" phases=3 conn=Delta model=2 kv=0.220000000 kw = 0.1792785 pf=0.92 status=variable vmaxpu=1.5 vminpu=0.92 daily="RES1_19_DU"  
New "Load.BT_1041327_1_M2" bus1="1001041327.1.2.3.4" phases=3 conn=Delta model=3 kv=0.220000000 kw = 0.1792785 pf=0.92 status=variable vmaxpu=1.5 vminpu=0.92 daily="RES1_19_DU" 
New "Load.BT_1017002_1_M1" bus1="1001017002.1.2.3.4" phases=3 conn=Delta model=2 kv=0.220000000 kw = 0.118314 pf=0.92 status=variable vmaxpu=1.5 vminpu=0.92 daily="COM1_19_DU"  
New "Load.BT_1017002_1_M2" bus1="1001017002.1.2.3.4" phases=3 conn=Delta model=3 kv=0.220000000 kw = 0.118314 pf=0.92 status=variable vmaxpu=1.5 vminpu=0.92 daily="COM1_19_DU" 
New "Load.BT_1007776_1_M1" bus1="1001007776.1.2.4" phases=1 conn=Delta model=2 kv=0.220000000 kw = 0.0932295 pf=0.92 status=variable vmaxpu=1.5 vminpu=0.92 daily="RES1_11_DU"  
New "Load.BT_1007776_1_M2" bus1="1001007776.1.2.4" phases=1 conn=Delta model=3 kv=0.220000000 kw = 0.0932295 pf=0.92 status=variable vmaxpu=1.5 vminpu=0.92 daily="RES1_11_DU" 
New "Load.BT_1204126_1_M1" bus1="1001204126.1.2.3.4" phases=3 conn=Delta model=2 kv=0.220000000 kw = 0.134408 pf=0.92 status=variable vmaxpu=1.5 vminpu=0.92 daily="COM1_14_DU"  
New "Load.BT_1204126_1_M2" bus1="1001204126.1.2.3.4" phases=3 conn=Delta model=3 kv=0.220000000 kw = 0.134408 pf=0.92 status=variable vmaxpu=1.5 vminpu=0.92 daily="COM1_14_DU" 
New "Load.BT_1036735_1_M1" bus1="1001036735.1.4" phases=1 conn=Wye model=2 kv=0.220000000 kw = 0.8710865 pf=0.92 status=variable vmaxpu=1.5 vminpu=0.92 daily="RES1_5_DU"  
New "Load.BT_1036735_1_M2" bus1="1001036735.1.4" phases=1 conn=Wye model=3 kv=0.220000000 kw = 0.8710865 pf=0.92 status=variable vmaxpu=1.5 vminpu=0.92 daily="RES1_5_DU" 
New "Load.BT_1020005_1_M1" bus1="1001020005.3.4" phases=1 conn=Wye model=2 kv=0.220000000 kw = 0.369139 pf=0.92 status=variable vmaxpu=1.5 vminpu=0.92 daily="RES1_12_DU"  
New "Load.BT_1020005_1_M2" bus1="1001020005.3.4" phases=1 conn=Wye model=3 kv=0.220000000 kw = 0.369139 pf=0.92 status=variable vmaxpu=1.5 vminpu=0.92 daily="RES1_12_DU" 
New "Load.BT_995778_1_M1" bus1="1000995778.3.4" phases=1 conn=Wye model=2 kv=0.220000000 kw = 0.3106085 pf=0.92 status=variable vmaxpu=1.5 vminpu=0.92 daily="RES1_1_DU"  
New "Load.BT_995778_1_M2" bus1="1000995778.3.4" phases=1 conn=Wye model=3 kv=0.220000000 kw = 0.3106085 pf=0.92 status=variable vmaxpu=1.5 vminpu=0.92 daily="RES1_1_DU" 
New "Load.BT_1045891_M1" bus1="1001045891.1.2.4" phases=1 conn=Delta model=2 kv=0.220000000 kw = 0.224788 pf=0.92 status=variable vmaxpu=1.5 vminpu=0.92 daily="RES1_19_DU"  
New "Load.BT_1045891_M2" bus1="1001045891.1.2.4" phases=1 conn=Delta model=3 kv=0.220000000 kw = 0.224788 pf=0.92 status=variable vmaxpu=1.5 vminpu=0.92 daily="RES1_19_DU" 
New "Load.BT_1007776_2_M1" bus1="1001007776.1.2.4" phases=1 conn=Delta model=2 kv=0.220000000 kw = 0.0435915 pf=0.92 status=variable vmaxpu=1.5 vminpu=0.92 daily="RES1_11_DU"  
New "Load.BT_1007776_2_M2" bus1="1001007776.1.2.4" phases=1 conn=Delta model=3 kv=0.220000000 kw = 0.0435915 pf=0.92 status=variable vmaxpu=1.5 vminpu=0.92 daily="RES1_11_DU" 
New "Load.BT_3667923_M1" bus1="1003667923.3.1.4" phases=1 conn=Delta model=2 kv=0.220000000 kw = 0.10931 pf=0.92 status=variable vmaxpu=1.5 vminpu=0.92 daily="RES1_14_DU"  
New "Load.BT_3667923_M2" bus1="1003667923.3.1.4" phases=1 conn=Delta model=3 kv=0.220000000 kw = 0.10931 pf=0.92 status=variable vmaxpu=1.5 vminpu=0.92 daily="RES1_14_DU" 
New "Load.BT_1011969_M1" bus1="1001011969.2.4" phases=1 conn=Wye model=2 kv=0.220000000 kw = 0.475236 pf=0.92 status=variable vmaxpu=1.5 vminpu=0.92 daily="RES1_1_DU"  
New "Load.BT_1011969_M2" bus1="1001011969.2.4" phases=1 conn=Wye model=3 kv=0.220000000 kw = 0.475236 pf=0.92 status=variable vmaxpu=1.5 vminpu=0.92 daily="RES1_1_DU" 
New "Load.BT_1018290_M1" bus1="1001018290.2.4" phases=1 conn=Wye model=2 kv=0.220000000 kw = 0.1480475 pf=0.92 status=variable vmaxpu=1.5 vminpu=0.92 daily="RES1_7_DU"  
New "Load.BT_1018290_M2" bus1="1001018290.2.4" phases=1 conn=Wye model=3 kv=0.220000000 kw = 0.1480475 pf=0.92 status=variable vmaxpu=1.5 vminpu=0.92 daily="RES1_7_DU" 
New "Load.BT_11016062_M1" bus1="1011016062.1.2.4" phases=1 conn=Delta model=2 kv=0.220000000 kw = 0.452661 pf=0.92 status=variable vmaxpu=1.5 vminpu=0.92 daily="RES1_2_DU"  
New "Load.BT_11016062_M2" bus1="1011016062.1.2.4" phases=1 conn=Delta model=3 kv=0.220000000 kw = 0.452661 pf=0.92 status=variable vmaxpu=1.5 vminpu=0.92 daily="RES1_2_DU" 
New "Load.BT_1027880_M1" bus1="1001027880.3.4" phases=1 conn=Wye model=2 kv=0.220000000 kw = 0.443091 pf=0.92 status=variable vmaxpu=1.5 vminpu=0.92 daily="RES1_2_DU"  
New "Load.BT_1027880_M2" bus1="1001027880.3.4" phases=1 conn=Wye model=3 kv=0.220000000 kw = 0.443091 pf=0.92 status=variable vmaxpu=1.5 vminpu=0.92 daily="RES1_2_DU" 
New "Load.BT_11409246_1_M1" bus1="1011409246.1.2.3.4" phases=3 conn=Delta model=2 kv=0.220000000 kw = 0.151693 pf=0.92 status=variable vmaxpu=1.5 vminpu=0.92 daily="RES1_14_DU"  
New "Load.BT_11409246_1_M2" bus1="1011409246.1.2.3.4" phases=3 conn=Delta model=3 kv=0.220000000 kw = 0.151693 pf=0.92 status=variable vmaxpu=1.5 vminpu=0.92 daily="RES1_14_DU" 

New "Load.BT_1018458_M1" bus1="1001018458.1.2.3.4" phases=3 conn=Delta model=2 kv=0.220000000 kw = 0.2216685 pf=0.92 status=variable vmaxpu=1.5 vminpu=0.92 daily="RES1_7_DU"  
New "Load.BT_1018458_M2" bus1="1001018458.1.2.3.4" phases=3 conn=Delta model=3 kv=0.220000000 kw = 0.2216685 pf=0.92 status=variable vmaxpu=1.5 vminpu=0.92 daily="RES1_7_DU" 
New "Load.BT_4270686_M1" bus1="1004270686.3.1.4" phases=1 conn=Delta model=2 kv=0.220000000 kw = 0.159125 pf=0.92 status=variable vmaxpu=1.5 vminpu=0.92 daily="COM1_13_DU"  
New "Load.BT_4270686_M2" bus1="1004270686.3.1.4" phases=1 conn=Delta model=3 kv=0.220000000 kw = 0.159125 pf=0.92 status=variable vmaxpu=1.5 vminpu=0.92 daily="COM1_13_DU" 
New "Load.BT_3879505_1_M1" bus1="1003879505.3.4" phases=1 conn=Wye model=2 kv=0.220000000 kw = 0.237767 pf=0.92 status=variable vmaxpu=1.5 vminpu=0.92 daily="RES1_2_DU"  
New "Load.BT_3879505_1_M2" bus1="1003879505.3.4" phases=1 conn=Wye model=3 kv=0.220000000 kw = 0.237767 pf=0.92 status=variable vmaxpu=1.5 vminpu=0.92 daily="RES1_2_DU" 
New "Load.BT_6474843_1_M1" bus1="1006474843.1.2.3.4" phases=3 conn=Delta model=2 kv=0.220000000 kw = 0.8449435 pf=0.92 status=variable vmaxpu=1.5 vminpu=0.92 daily="RES1_1_DU"  
New "Load.BT_6474843_1_M2" bus1="1006474843.1.2.3.4" phases=3 conn=Delta model=3 kv=0.220000000 kw = 0.8449435 pf=0.92 status=variable vmaxpu=1.5 vminpu=0.92 daily="RES1_1_DU" 
New "Load.BT_1020327_1_M1" bus1="1001020327.1.2.4" phases=1 conn=Delta model=2 kv=0.240000000 kw = 0.281111 pf=0.92 status=variable vmaxpu=1.5 vminpu=0.92 daily="RES1_4_DU"  
New "Load.BT_1020327_1_M2" bus1="1001020327.1.2.4" phases=1 conn=Delta model=3 kv=0.240000000 kw = 0.281111 pf=0.92 status=variable vmaxpu=1.5 vminpu=0.92 daily="RES1_4_DU" 
New "Load.BT_1204126_2_M1" bus1="1001204126.1.2.3.4" phases=3 conn=Delta model=2 kv=0.220000000 kw = 0.8044125 pf=0.92 status=variable vmaxpu=1.5 vminpu=0.92 daily="COM1_14_DU"  
New "Load.BT_1204126_2_M2" bus1="1001204126.1.2.3.4" phases=3 conn=Delta model=3 kv=0.220000000 kw = 0.8044125 pf=0.92 status=variable vmaxpu=1.5 vminpu=0.92 daily="COM1_14_DU" 
New "Load.BT_5024362_M1" bus1="1005024362.1.2.3.4" phases=3 conn=Delta model=2 kv=0.220000000 kw = 0.1606955 pf=0.92 status=variable vmaxpu=1.5 vminpu=0.92 daily="COM1_21_DU"  
New "Load.BT_5024362_M2" bus1="1005024362.1.2.3.4" phases=3 conn=Delta model=3 kv=0.220000000 kw = 0.1606955 pf=0.92 status=variable vmaxpu=1.5 vminpu=0.92 daily="COM1_21_DU" 
New "Load.BT_10761308_1_M1" bus1="1010761308.1.2.3.4" phases=3 conn=Delta model=2 kv=0.220000000 kw = 0.373734 pf=0.92 status=variable vmaxpu=1.5 vminpu=0.92 daily="RES1_18_DU"  
New "Load.BT_10761308_1_M2" bus1="1010761308.1.2.3.4" phases=3 conn=Delta model=3 kv=0.220000000 kw = 0.373734 pf=0.92 status=variable vmaxpu=1.5 vminpu=0.92 daily="RES1_18_DU" 
New "Load.BT_1243732_M1" bus1="1001243732.3.4" phases=1 conn=Wye model=2 kv=0.220000000 kw = 0.1542485 pf=0.92 status=variable vmaxpu=1.5 vminpu=0.92 daily="RES1_25_DU"  
New "Load.BT_1243732_M2" bus1="1001243732.3.4" phases=1 conn=Wye model=3 kv=0.220000000 kw = 0.1542485 pf=0.92 status=variable vmaxpu=1.5 vminpu=0.92 daily="RES1_25_DU" 
New "Load.BT_5052075_1_M1" bus1="1005052075.1.2.4" phases=1 conn=Delta model=2 kv=0.220000000 kw = 0.29 pf=0.92 status=variable vmaxpu=1.5 vminpu=0.92 daily="COM1_4_DU"  
New "Load.BT_5052075_1_M2" bus1="1005052075.1.2.4" phases=1 conn=Delta model=3 kv=0.220000000 kw = 0.29 pf=0.92 status=variable vmaxpu=1.5 vminpu=0.92 daily="COM1_4_DU" 
New "Load.BT_1011780_M1" bus1="1001011780.1.4" phases=1 conn=Wye model=2 kv=0.220000000 kw = 0.227791 pf=0.92 status=variable vmaxpu=1.5 vminpu=0.92 daily="RES1_26_DU"  
New "Load.BT_1011780_M2" bus1="1001011780.1.4" phases=1 conn=Wye model=3 kv=0.220000000 kw = 0.227791 pf=0.92 status=variable vmaxpu=1.5 vminpu=0.92 daily="RES1_26_DU" 
New "Load.BT_4157265_1_M1" bus1="1004157265.1.2.3.4" phases=3 conn=Delta model=2 kv=0.220000000 kw = 0.4236845 pf=0.92 status=variable vmaxpu=1.5 vminpu=0.92 daily="RES1_2_DU"  
New "Load.BT_4157265_1_M2" bus1="1004157265.1.2.3.4" phases=3 conn=Delta model=3 kv=0.220000000 kw = 0.4236845 pf=0.92 status=variable vmaxpu=1.5 vminpu=0.92 daily="RES1_2_DU" 
New "Load.BT_1007937_M1" bus1="1001007937.1.4" phases=1 conn=Wye model=2 kv=0.220000000 kw = 0.409896 pf=0.92 status=variable vmaxpu=1.5 vminpu=0.92 daily="RES1_11_DU"  
New "Load.BT_1007937_M2" bus1="1001007937.1.4" phases=1 conn=Wye model=3 kv=0.220000000 kw = 0.409896 pf=0.92 status=variable vmaxpu=1.5 vminpu=0.92 daily="RES1_11_DU" 
New "Load.BT_1031254_M1" bus1="1001031254.1.2.3.4" phases=3 conn=Delta model=2 kv=0.220000000 kw = 0.643704 pf=0.92 status=variable vmaxpu=1.5 vminpu=0.92 daily="RES1_2_DU"  
New "Load.BT_1031254_M2" bus1="1001031254.1.2.3.4" phases=3 conn=Delta model=3 kv=0.220000000 kw = 0.643704 pf=0.92 status=variable vmaxpu=1.5 vminpu=0.92 daily="RES1_2_DU" 
New "Load.BT_1007517_1_M1" bus1="1001007517.1.2.3.4" phases=3 conn=Delta model=2 kv=0.220000000 kw = 0.310401 pf=0.92 status=variable vmaxpu=1.5 vminpu=0.92 daily="RES1_11_DU"  
New "Load.BT_1007517_1_M2" bus1="1001007517.1.2.3.4" phases=3 conn=Delta model=3 kv=0.220000000 kw = 0.310401 pf=0.92 status=variable vmaxpu=1.5 vminpu=0.92 daily="RES1_11_DU" 
New "Load.BT_994777_M1" bus1="1000994777.1.2.4" phases=1 conn=Delta model=2 kv=0.220000000 kw = 0.54269 pf=0.92 status=variable vmaxpu=1.5 vminpu=0.92 daily="RES1_1_DU"  
New "Load.BT_994777_M2" bus1="1000994777.1.2.4" phases=1 conn=Delta model=3 kv=0.220000000 kw = 0.54269 pf=0.92 status=variable vmaxpu=1.5 vminpu=0.92 daily="RES1_1_DU" 
New "Load.BT_6723455_1_M1" bus1="1006723455.1.2.4" phases=1 conn=Delta model=2 kv=0.220000000 kw = 1.2761015 pf=0.92 status=variable vmaxpu=1.5 vminpu=0.92 daily="RES1_9_DU"  
New "Load.BT_6723455_1_M2" bus1="1006723455.1.2.4" phases=1 conn=Delta model=3 kv=0.220000000 kw = 1.2761015 pf=0.92 status=variable vmaxpu=1.5 vminpu=0.92 daily="RES1_9_DU" 
New "Load.BT_1238356_M1" bus1="1001238356.1.2.3.4" phases=3 conn=Delta model=2 kv=0.220000000 kw = 0.007156 pf=0.92 status=variable vmaxpu=1.5 vminpu=0.92 daily="RES1_18_DU"  
New "Load.BT_1238356_M2" bus1="1001238356.1.2.3.4" phases=3 conn=Delta model=3 kv=0.220000000 kw = 0.007156 pf=0.92 status=variable vmaxpu=1.5 vminpu=0.92 daily="RES1_18_DU" 

New "Load.BT_1009939_M1" bus1="1001009939.1.4" phases=1 conn=Wye model=2 kv=0.220000000 kw = 0.023843 pf=0.92 status=variable vmaxpu=1.5 vminpu=0.92 daily="RES1_1_DU"  
New "Load.BT_1009939_M2" bus1="1001009939.1.4" phases=1 conn=Wye model=3 kv=0.220000000 kw = 0.023843 pf=0.92 status=variable vmaxpu=1.5 vminpu=0.92 daily="RES1_1_DU" 
New "Load.BT_10237022_2_M1" bus1="1010237022.1.2.3.4" phases=3 conn=Delta model=2 kv=0.220000000 kw = 0.6769705 pf=0.92 status=variable vmaxpu=1.5 vminpu=0.92 daily="RES1_16_DU"  
New "Load.BT_10237022_2_M2" bus1="1010237022.1.2.3.4" phases=3 conn=Delta model=3 kv=0.220000000 kw = 0.6769705 pf=0.92 status=variable vmaxpu=1.5 vminpu=0.92 daily="RES1_16_DU" 
New "Load.BT_6571282_M1" bus1="1006571282.2.4" phases=1 conn=Wye model=2 kv=0.220000000 kw = 0.682606 pf=0.92 status=variable vmaxpu=1.5 vminpu=0.92 daily="RES1_2_DU"  
New "Load.BT_6571282_M2" bus1="1006571282.2.4" phases=1 conn=Wye model=3 kv=0.220000000 kw = 0.682606 pf=0.92 status=variable vmaxpu=1.5 vminpu=0.92 daily="RES1_2_DU" 
New "Load.BT_1020733_2_M1" bus1="1001020733.1.2.3.4" phases=3 conn=Delta model=2 kv=0.220000000 kw = 0.3166 pf=0.92 status=variable vmaxpu=1.5 vminpu=0.92 daily="RES1_11_DU"  
New "Load.BT_1020733_2_M2" bus1="1001020733.1.2.3.4" phases=3 conn=Delta model=3 kv=0.220000000 kw = 0.3166 pf=0.92 status=variable vmaxpu=1.5 vminpu=0.92 daily="RES1_11_DU" 
New "Load.BT_1053255_1_M1" bus1="1001053255.1.2.3.4" phases=3 conn=Delta model=2 kv=0.220000000 kw = 0.24707 pf=0.92 status=variable vmaxpu=1.5 vminpu=0.92 daily="RES1_2_DU"  
New "Load.BT_1053255_1_M2" bus1="1001053255.1.2.3.4" phases=3 conn=Delta model=3 kv=0.220000000 kw = 0.24707 pf=0.92 status=variable vmaxpu=1.5 vminpu=0.92 daily="RES1_2_DU" 


New "Load.BT_1016645_1_M1" bus1="1001016645.1.2.4" phases=1 conn=Delta model=2 kv=0.220000000 kw = 0.018304 pf=0.92 status=variable vmaxpu=1.5 vminpu=0.92 daily="COM1_17_DU"  
New "Load.BT_1016645_1_M2" bus1="1001016645.1.2.4" phases=1 conn=Delta model=3 kv=0.220000000 kw = 0.018304 pf=0.92 status=variable vmaxpu=1.5 vminpu=0.92 daily="COM1_17_DU" 
New "Load.BT_1007874_M1" bus1="1001007874.3.4" phases=1 conn=Wye model=2 kv=0.220000000 kw = 0.201618 pf=0.92 status=variable vmaxpu=1.5 vminpu=0.92 daily="RES1_11_DU"  
New "Load.BT_1007874_M2" bus1="1001007874.3.4" phases=1 conn=Wye model=3 kv=0.220000000 kw = 0.201618 pf=0.92 status=variable vmaxpu=1.5 vminpu=0.92 daily="RES1_11_DU" 
New "Load.BT_4892538_M1" bus1="1004892538.1.2.4" phases=1 conn=Delta model=2 kv=0.220000000 kw = 0.712412 pf=0.92 status=variable vmaxpu=1.5 vminpu=0.92 daily="RES1_2_DU"  
New "Load.BT_4892538_M2" bus1="1004892538.1.2.4" phases=1 conn=Delta model=3 kv=0.220000000 kw = 0.712412 pf=0.92 status=variable vmaxpu=1.5 vminpu=0.92 daily="RES1_2_DU" 
New "Load.BT_992614_M1" bus1="1000992614.3.4" phases=1 conn=Wye model=2 kv=0.220000000 kw = 0.6901655 pf=0.92 status=variable vmaxpu=1.5 vminpu=0.92 daily="RES1_1_DU"  
New "Load.BT_992614_M2" bus1="1000992614.3.4" phases=1 conn=Wye model=3 kv=0.220000000 kw = 0.6901655 pf=0.92 status=variable vmaxpu=1.5 vminpu=0.92 daily="RES1_1_DU" 
New "Load.BT_1036770_M1" bus1="1001036770.1.2.3.4" phases=3 conn=Delta model=2 kv=0.220000000 kw = 0.00179 pf=0.92 status=variable vmaxpu=1.5 vminpu=0.92 daily="RES1_19_DU"  
New "Load.BT_1036770_M2" bus1="1001036770.1.2.3.4" phases=3 conn=Delta model=3 kv=0.220000000 kw = 0.00179 pf=0.92 status=variable vmaxpu=1.5 vminpu=0.92 daily="RES1_19_DU" 
New "Load.BT_1041894_1_M1" bus1="1001041894.1.2.3.4" phases=3 conn=Delta model=2 kv=0.220000000 kw = 1.0720995 pf=0.92 status=variable vmaxpu=1.5 vminpu=0.92 daily="RES1_11_DU"  
New "Load.BT_1041894_1_M2" bus1="1001041894.1.2.3.4" phases=3 conn=Delta model=3 kv=0.220000000 kw = 1.0720995 pf=0.92 status=variable vmaxpu=1.5 vminpu=0.92 daily="RES1_11_DU" 
New "Load.BT_1031338_M1" bus1="1001031338.1.2.3.4" phases=3 conn=Delta model=2 kv=0.220000000 kw = 1.49181 pf=0.92 status=variable vmaxpu=1.5 vminpu=0.92 daily="RES1_13_DU"  
New "Load.BT_1031338_M2" bus1="1001031338.1.2.3.4" phases=3 conn=Delta model=3 kv=0.220000000 kw = 1.49181 pf=0.92 status=variable vmaxpu=1.5 vminpu=0.92 daily="RES1_13_DU" 
New "Load.BT_1013796_3_M1" bus1="1001013796.1.2.3.4" phases=3 conn=Delta model=2 kv=0.220000000 kw = 0.3566355 pf=0.92 status=variable vmaxpu=1.5 vminpu=0.92 daily="RES1_2_DU"  
New "Load.BT_1013796_3_M2" bus1="1001013796.1.2.3.4" phases=3 conn=Delta model=3 kv=0.220000000 kw = 0.3566355 pf=0.92 status=variable vmaxpu=1.5 vminpu=0.92 daily="RES1_2_DU" 
New "Load.BT_1020516_1_M1" bus1="1001020516.1.2.3.4" phases=3 conn=Delta model=2 kv=0.220000000 kw = 2.1143455 pf=0.92 status=variable vmaxpu=1.5 vminpu=0.92 daily="RES1_1_DU"  
New "Load.BT_1020516_1_M2" bus1="1001020516.1.2.3.4" phases=3 conn=Delta model=3 kv=0.220000000 kw = 2.1143455 pf=0.92 status=variable vmaxpu=1.5 vminpu=0.92 daily="RES1_1_DU" 
New "Load.BT_10406746_M1" bus1="1010406746.1.2.4" phases=1 conn=Delta model=2 kv=0.220000000 kw = 0.5345745 pf=0.92 status=variable vmaxpu=1.5 vminpu=0.92 daily="RES1_6_DU"  
New "Load.BT_10406746_M2" bus1="1010406746.1.2.4" phases=1 conn=Delta model=3 kv=0.220000000 kw = 0.5345745 pf=0.92 status=variable vmaxpu=1.5 vminpu=0.92 daily="RES1_6_DU" 
New "Load.BT_1015350_1_M1" bus1="1001015350.3.4" phases=1 conn=Wye model=2 kv=0.220000000 kw = 0.1648835 pf=0.92 status=variable vmaxpu=1.5 vminpu=0.92 daily="RES1_26_DU"  
New "Load.BT_1015350_1_M2" bus1="1001015350.3.4" phases=1 conn=Wye model=3 kv=0.220000000 kw = 0.1648835 pf=0.92 status=variable vmaxpu=1.5 vminpu=0.92 daily="RES1_26_DU" 
New "Load.BT_1013796_4_M1" bus1="1001013796.1.2.3.4" phases=3 conn=Delta model=2 kv=0.220000000 kw = 0.1626295 pf=0.92 status=variable vmaxpu=1.5 vminpu=0.92 daily="RES1_2_DU"  
New "Load.BT_1013796_4_M2" bus1="1001013796.1.2.3.4" phases=3 conn=Delta model=3 kv=0.220000000 kw = 0.1626295 pf=0.92 status=variable vmaxpu=1.5 vminpu=0.92 daily="RES1_2_DU" 
New "Load.BT_1024660_1_M1" bus1="1001024660.1.2.3.4" phases=3 conn=Delta model=2 kv=0.220000000 kw = 0.0327685 pf=0.92 status=variable vmaxpu=1.5 vminpu=0.92 daily="RES1_2_DU"  
New "Load.BT_1024660_1_M2" bus1="1001024660.1.2.3.4" phases=3 conn=Delta model=3 kv=0.220000000 kw = 0.0327685 pf=0.92 status=variable vmaxpu=1.5 vminpu=0.92 daily="RES1_2_DU" 
New "Load.BT_1204112_1_M1" bus1="1001204112.1.2.3.4" phases=3 conn=Delta model=2 kv=0.220000000 kw = 1.4111715 pf=0.92 status=variable vmaxpu=1.5 vminpu=0.92 daily="RES1_1_DU"  
New "Load.BT_1204112_1_M2" bus1="1001204112.1.2.3.4" phases=3 conn=Delta model=3 kv=0.220000000 kw = 1.4111715 pf=0.92 status=variable vmaxpu=1.5 vminpu=0.92 daily="RES1_1_DU" 
New "Load.BT_1034684_M1" bus1="1001034684.1.2.3.4" phases=3 conn=Delta model=2 kv=0.220000000 kw = 0.644714 pf=0.92 status=variable vmaxpu=1.5 vminpu=0.92 daily="RES1_19_DU"  
New "Load.BT_1034684_M2" bus1="1001034684.1.2.3.4" phases=3 conn=Delta model=3 kv=0.220000000 kw = 0.644714 pf=0.92 status=variable vmaxpu=1.5 vminpu=0.92 daily="RES1_19_DU" 
New "Load.BT_4928714_1_M1" bus1="1004928714.1.2.3.4" phases=3 conn=Delta model=2 kv=0.220000000 kw = 0.591819 pf=0.92 status=variable vmaxpu=1.5 vminpu=0.92 daily="COM1_21_DU"  
New "Load.BT_4928714_1_M2" bus1="1004928714.1.2.3.4" phases=3 conn=Delta model=3 kv=0.220000000 kw = 0.591819 pf=0.92 status=variable vmaxpu=1.5 vminpu=0.92 daily="COM1_21_DU" 
New "Load.BT_1033844_M1" bus1="1001033844.1.2.3.4" phases=3 conn=Delta model=2 kv=0.220000000 kw = 4.35189 pf=0.92 status=variable vmaxpu=1.5 vminpu=0.92 daily="COM1_21_DU"  
New "Load.BT_1033844_M2" bus1="1001033844.1.2.3.4" phases=3 conn=Delta model=3 kv=0.220000000 kw = 4.35189 pf=0.92 status=variable vmaxpu=1.5 vminpu=0.92 daily="COM1_21_DU" 
New "Load.BT_990913_M1" bus1="1000990913.3.4" phases=1 conn=Wye model=2 kv=0.220000000 kw = 0.2642465 pf=0.92 status=variable vmaxpu=1.5 vminpu=0.92 daily="RES1_1_DU"  
New "Load.BT_990913_M2" bus1="1000990913.3.4" phases=1 conn=Wye model=3 kv=0.220000000 kw = 0.2642465 pf=0.92 status=variable vmaxpu=1.5 vminpu=0.92 daily="RES1_1_DU" 
New "Load.BT_1025017_2_M1" bus1="1001025017.1.2.3.4" phases=3 conn=Delta model=2 kv=0.220000000 kw = 0.397256 pf=0.92 status=variable vmaxpu=1.5 vminpu=0.92 daily="RES1_2_DU"  
New "Load.BT_1025017_2_M2" bus1="1001025017.1.2.3.4" phases=3 conn=Delta model=3 kv=0.220000000 kw = 0.397256 pf=0.92 status=variable vmaxpu=1.5 vminpu=0.92 daily="RES1_2_DU" 
New "Load.BT_1016722_1_M1" bus1="1001016722.1.2.3.4" phases=3 conn=Delta model=2 kv=0.220000000 kw = 0.1324485 pf=0.92 status=variable vmaxpu=1.5 vminpu=0.92 daily="RES1_12_DU"  
New "Load.BT_1016722_1_M2" bus1="1001016722.1.2.3.4" phases=3 conn=Delta model=3 kv=0.220000000 kw = 0.1324485 pf=0.92 status=variable vmaxpu=1.5 vminpu=0.92 daily="RES1_12_DU" 
New "Load.BT_4555663_M1" bus1="1004555663.1.2.3.4" phases=3 conn=Delta model=2 kv=0.220000000 kw = 0.794992 pf=0.92 status=variable vmaxpu=1.5 vminpu=0.92 daily="RES1_6_DU"  
New "Load.BT_4555663_M2" bus1="1004555663.1.2.3.4" phases=3 conn=Delta model=3 kv=0.220000000 kw = 0.794992 pf=0.92 status=variable vmaxpu=1.5 vminpu=0.92 daily="RES1_6_DU" 

New "Load.BT_1024940_2_M1" bus1="1001024940.1.2.3.4" phases=3 conn=Delta model=2 kv=0.220000000 kw = 0.002607 pf=0.92 status=variable vmaxpu=1.5 vminpu=0.92 daily="RES1_2_DU"  
New "Load.BT_1024940_2_M2" bus1="1001024940.1.2.3.4" phases=3 conn=Delta model=3 kv=0.220000000 kw = 0.002607 pf=0.92 status=variable vmaxpu=1.5 vminpu=0.92 daily="RES1_2_DU" 
New "Load.BT_3956057_1_M1" bus1="1003956057.1.2.4" phases=1 conn=Delta model=2 kv=0.220000000 kw = 0.1663625 pf=0.92 status=variable vmaxpu=1.5 vminpu=0.92 daily="RES1_2_DU"  
New "Load.BT_3956057_1_M2" bus1="1003956057.1.2.4" phases=1 conn=Delta model=3 kv=0.220000000 kw = 0.1663625 pf=0.92 status=variable vmaxpu=1.5 vminpu=0.92 daily="RES1_2_DU" 
New "Load.BT_1022945_1_M1" bus1="1001022945.1.2.3.4" phases=3 conn=Delta model=2 kv=0.220000000 kw = 0.353977 pf=0.92 status=variable vmaxpu=1.5 vminpu=0.92 daily="RES1_16_DU"  
New "Load.BT_1022945_1_M2" bus1="1001022945.1.2.3.4" phases=3 conn=Delta model=3 kv=0.220000000 kw = 0.353977 pf=0.92 status=variable vmaxpu=1.5 vminpu=0.92 daily="RES1_16_DU" 
New "Load.BT_994385_M1" bus1="1000994385.1.4" phases=1 conn=Wye model=2 kv=0.220000000 kw = 0.5202395 pf=0.92 status=variable vmaxpu=1.5 vminpu=0.92 daily="RES1_1_DU"  
New "Load.BT_994385_M2" bus1="1000994385.1.4" phases=1 conn=Wye model=3 kv=0.220000000 kw = 0.5202395 pf=0.92 status=variable vmaxpu=1.5 vminpu=0.92 daily="RES1_1_DU" 
New "Load.BT_1012522_1_M1" bus1="1001012522.1.2.3.4" phases=3 conn=Delta model=2 kv=0.220000000 kw = 0.291343 pf=0.92 status=variable vmaxpu=1.5 vminpu=0.92 daily="RES1_11_DU"  
New "Load.BT_1012522_1_M2" bus1="1001012522.1.2.3.4" phases=3 conn=Delta model=3 kv=0.220000000 kw = 0.291343 pf=0.92 status=variable vmaxpu=1.5 vminpu=0.92 daily="RES1_11_DU" 
New "Load.BT_1014937_M1" bus1="1001014937.2.4" phases=1 conn=Wye model=2 kv=0.220000000 kw = 0.245068 pf=0.92 status=variable vmaxpu=1.5 vminpu=0.92 daily="RES1_3_DU"  
New "Load.BT_1014937_M2" bus1="1001014937.2.4" phases=1 conn=Wye model=3 kv=0.220000000 kw = 0.245068 pf=0.92 status=variable vmaxpu=1.5 vminpu=0.92 daily="RES1_3_DU" 
New "Load.BT_4915512_M1" bus1="1004915512.1.2.4" phases=1 conn=Delta model=2 kv=0.220000000 kw = 0.240735 pf=0.92 status=variable vmaxpu=1.5 vminpu=0.92 daily="RES1_7_DU"  
New "Load.BT_4915512_M2" bus1="1004915512.1.2.4" phases=1 conn=Delta model=3 kv=0.220000000 kw = 0.240735 pf=0.92 status=variable vmaxpu=1.5 vminpu=0.92 daily="RES1_7_DU" 
New "Load.BT_992740_1_M1" bus1="1000992740.3.1.4" phases=1 conn=Delta model=2 kv=0.220000000 kw = 0.248996 pf=0.92 status=variable vmaxpu=1.5 vminpu=0.92 daily="RES1_1_DU"  
New "Load.BT_992740_1_M2" bus1="1000992740.3.1.4" phases=1 conn=Delta model=3 kv=0.220000000 kw = 0.248996 pf=0.92 status=variable vmaxpu=1.5 vminpu=0.92 daily="RES1_1_DU" 
New "Load.BT_3729285_1_M1" bus1="1003729285.3.4" phases=1 conn=Wye model=2 kv=0.220000000 kw = 0.285882 pf=0.92 status=variable vmaxpu=1.5 vminpu=0.92 daily="RES1_1_DU"  
New "Load.BT_3729285_1_M2" bus1="1003729285.3.4" phases=1 conn=Wye model=3 kv=0.220000000 kw = 0.285882 pf=0.92 status=variable vmaxpu=1.5 vminpu=0.92 daily="RES1_1_DU" 
New "Load.BT_1011528_M1" bus1="1001011528.2.4" phases=1 conn=Wye model=2 kv=0.220000000 kw = 0.438044 pf=0.92 status=variable vmaxpu=1.5 vminpu=0.92 daily="RES1_26_DU"  
New "Load.BT_1011528_M2" bus1="1001011528.2.4" phases=1 conn=Wye model=3 kv=0.220000000 kw = 0.438044 pf=0.92 status=variable vmaxpu=1.5 vminpu=0.92 daily="RES1_26_DU" 
New "Load.BT_1033809_2_M1" bus1="1001033809.1.2.3.4" phases=3 conn=Delta model=2 kv=0.220000000 kw = 0.5500195 pf=0.92 status=variable vmaxpu=1.5 vminpu=0.92 daily="RES1_2_DU"  
New "Load.BT_1033809_2_M2" bus1="1001033809.1.2.3.4" phases=3 conn=Delta model=3 kv=0.220000000 kw = 0.5500195 pf=0.92 status=variable vmaxpu=1.5 vminpu=0.92 daily="RES1_2_DU" 
New "Load.BT_5093725_M1" bus1="1005093725.2.3.4" phases=1 conn=Delta model=2 kv=0.220000000 kw = 1.04736 pf=0.92 status=variable vmaxpu=1.5 vminpu=0.92 daily="RES1_2_DU"  
New "Load.BT_5093725_M2" bus1="1005093725.2.3.4" phases=1 conn=Delta model=3 kv=0.220000000 kw = 1.04736 pf=0.92 status=variable vmaxpu=1.5 vminpu=0.92 daily="RES1_2_DU" 
New "Load.BT_10215124_1_M1" bus1="1010215124.1.2.3.4" phases=3 conn=Delta model=2 kv=0.220000000 kw = 0.01638 pf=0.92 status=variable vmaxpu=1.5 vminpu=0.92 daily="RES1_17_DU"  
New "Load.BT_10215124_1_M2" bus1="1010215124.1.2.3.4" phases=3 conn=Delta model=3 kv=0.220000000 kw = 0.01638 pf=0.92 status=variable vmaxpu=1.5 vminpu=0.92 daily="RES1_17_DU" 
New "Load.BT_1219386_M1" bus1="1001219386.3.1.4" phases=1 conn=Delta model=2 kv=0.220000000 kw = 0.3853325 pf=0.92 status=variable vmaxpu=1.5 vminpu=0.92 daily="RES1_7_DU"  
New "Load.BT_1219386_M2" bus1="1001219386.3.1.4" phases=1 conn=Delta model=3 kv=0.220000000 kw = 0.3853325 pf=0.92 status=variable vmaxpu=1.5 vminpu=0.92 daily="RES1_7_DU" 
New "Load.BT_1053255_2_M1" bus1="1001053255.1.2.3.4" phases=3 conn=Delta model=2 kv=0.220000000 kw = 0.202361 pf=0.92 status=variable vmaxpu=1.5 vminpu=0.92 daily="RES1_2_DU"  
New "Load.BT_1053255_2_M2" bus1="1001053255.1.2.3.4" phases=3 conn=Delta model=3 kv=0.220000000 kw = 0.202361 pf=0.92 status=variable vmaxpu=1.5 vminpu=0.92 daily="RES1_2_DU" 
New "Load.BT_4593631_1_M1" bus1="1004593631.1.2.4" phases=1 conn=Delta model=2 kv=0.220000000 kw = 0.426306 pf=0.92 status=variable vmaxpu=1.5 vminpu=0.92 daily="RES1_16_DU"  
New "Load.BT_4593631_1_M2" bus1="1004593631.1.2.4" phases=1 conn=Delta model=3 kv=0.220000000 kw = 0.426306 pf=0.92 status=variable vmaxpu=1.5 vminpu=0.92 daily="RES1_16_DU" 
New "Load.BT_1013796_5_M1" bus1="1001013796.1.2.3.4" phases=3 conn=Delta model=2 kv=0.220000000 kw = 0.68391 pf=0.92 status=variable vmaxpu=1.5 vminpu=0.92 daily="RES1_2_DU"  
New "Load.BT_1013796_5_M2" bus1="1001013796.1.2.3.4" phases=3 conn=Delta model=3 kv=0.220000000 kw = 0.68391 pf=0.92 status=variable vmaxpu=1.5 vminpu=0.92 daily="RES1_2_DU" 
New "Load.BT_994301_1_M1" bus1="1000994301.1.2.4" phases=1 conn=Delta model=2 kv=0.220000000 kw = 0.42004 pf=0.92 status=variable vmaxpu=1.5 vminpu=0.92 daily="RES1_2_DU"  
New "Load.BT_994301_1_M2" bus1="1000994301.1.2.4" phases=1 conn=Delta model=3 kv=0.220000000 kw = 0.42004 pf=0.92 status=variable vmaxpu=1.5 vminpu=0.92 daily="RES1_2_DU" 
New "Load.BT_1042216_2_M1" bus1="1001042216.1.2.3.4" phases=3 conn=Delta model=2 kv=0.220000000 kw = 0.3944135 pf=0.92 status=variable vmaxpu=1.5 vminpu=0.92 daily="RES1_19_DU"  
New "Load.BT_1042216_2_M2" bus1="1001042216.1.2.3.4" phases=3 conn=Delta model=3 kv=0.220000000 kw = 0.3944135 pf=0.92 status=variable vmaxpu=1.5 vminpu=0.92 daily="RES1_19_DU" 

New "Load.BT_6474843_2_M1" bus1="1006474843.1.2.3.4" phases=3 conn=Delta model=2 kv=0.220000000 kw = 0.396675 pf=0.92 status=variable vmaxpu=1.5 vminpu=0.92 daily="RES1_1_DU"  
New "Load.BT_6474843_2_M2" bus1="1006474843.1.2.3.4" phases=3 conn=Delta model=3 kv=0.220000000 kw = 0.396675 pf=0.92 status=variable vmaxpu=1.5 vminpu=0.92 daily="RES1_1_DU" 
New "Load.BT_1036616_1_M1" bus1="1001036616.1.2.3.4" phases=3 conn=Delta model=2 kv=0.220000000 kw = 0.2081065 pf=0.92 status=variable vmaxpu=1.5 vminpu=0.92 daily="RES1_19_DU"  
New "Load.BT_1036616_1_M2" bus1="1001036616.1.2.3.4" phases=3 conn=Delta model=3 kv=0.220000000 kw = 0.2081065 pf=0.92 status=variable vmaxpu=1.5 vminpu=0.92 daily="RES1_19_DU" 

New "Load.BT_1008028_1_M1" bus1="1001008028.3.4" phases=1 conn=Wye model=2 kv=0.220000000 kw = 0.3593815 pf=0.92 status=variable vmaxpu=1.5 vminpu=0.92 daily="RES1_11_DU"  
New "Load.BT_1008028_1_M2" bus1="1001008028.3.4" phases=1 conn=Wye model=3 kv=0.220000000 kw = 0.3593815 pf=0.92 status=variable vmaxpu=1.5 vminpu=0.92 daily="RES1_11_DU" 
New "Load.BT_3796058_M1" bus1="1003796058.1.2.3.4" phases=3 conn=Delta model=2 kv=0.220000000 kw = 0.0 pf=0.92 status=variable vmaxpu=1.5 vminpu=0.92 daily="RES1_7_DU"  
New "Load.BT_3796058_M2" bus1="1003796058.1.2.3.4" phases=3 conn=Delta model=3 kv=0.220000000 kw = 0.0 pf=0.92 status=variable vmaxpu=1.5 vminpu=0.92 daily="RES1_7_DU" 
New "Load.BT_1007916_M1" bus1="1001007916.1.2.4" phases=1 conn=Delta model=2 kv=0.220000000 kw = 0.296732 pf=0.92 status=variable vmaxpu=1.5 vminpu=0.92 daily="RES1_11_DU"  
New "Load.BT_1007916_M2" bus1="1001007916.1.2.4" phases=1 conn=Delta model=3 kv=0.220000000 kw = 0.296732 pf=0.92 status=variable vmaxpu=1.5 vminpu=0.92 daily="RES1_11_DU" 
New "Load.BT_1023988_1_M1" bus1="1001023988.1.2.3.4" phases=3 conn=Delta model=2 kv=0.220000000 kw = 0.385429 pf=0.92 status=variable vmaxpu=1.5 vminpu=0.92 daily="RES1_24_DU"  
New "Load.BT_1023988_1_M2" bus1="1001023988.1.2.3.4" phases=3 conn=Delta model=3 kv=0.220000000 kw = 0.385429 pf=0.92 status=variable vmaxpu=1.5 vminpu=0.92 daily="RES1_24_DU" 
New "Load.BT_992607_M1" bus1="1000992607.1.2.4" phases=1 conn=Delta model=2 kv=0.220000000 kw = 0.4205525 pf=0.92 status=variable vmaxpu=1.5 vminpu=0.92 daily="RES1_1_DU"  
New "Load.BT_992607_M2" bus1="1000992607.1.2.4" phases=1 conn=Delta model=3 kv=0.220000000 kw = 0.4205525 pf=0.92 status=variable vmaxpu=1.5 vminpu=0.92 daily="RES1_1_DU" 
New "Load.BT_1018367_M1" bus1="1001018367.2.3.4" phases=1 conn=Delta model=2 kv=0.220000000 kw = 0.706222 pf=0.92 status=variable vmaxpu=1.5 vminpu=0.92 daily="RES1_4_DU"  
New "Load.BT_1018367_M2" bus1="1001018367.2.3.4" phases=1 conn=Delta model=3 kv=0.220000000 kw = 0.706222 pf=0.92 status=variable vmaxpu=1.5 vminpu=0.92 daily="RES1_4_DU" 
New "Load.BT_998417_M1" bus1="1000998417.2.4" phases=1 conn=Wye model=2 kv=0.120000000 kw = 0.082817 pf=0.92 status=variable vmaxpu=1.5 vminpu=0.92 daily="RES1_10_DU"  
New "Load.BT_998417_M2" bus1="1000998417.2.4" phases=1 conn=Wye model=3 kv=0.120000000 kw = 0.082817 pf=0.92 status=variable vmaxpu=1.5 vminpu=0.92 daily="RES1_10_DU" 
New "Load.BT_1020502_M1" bus1="1001020502.2.4" phases=1 conn=Wye model=2 kv=0.220000000 kw = 0.077922 pf=0.92 status=variable vmaxpu=1.5 vminpu=0.92 daily="RES1_7_DU"  
New "Load.BT_1020502_M2" bus1="1001020502.2.4" phases=1 conn=Wye model=3 kv=0.220000000 kw = 0.077922 pf=0.92 status=variable vmaxpu=1.5 vminpu=0.92 daily="RES1_7_DU" 

New "Load.BT_1033809_3_M1" bus1="1001033809.1.2.3.4" phases=3 conn=Delta model=2 kv=0.220000000 kw = 0.649541 pf=0.92 status=variable vmaxpu=1.5 vminpu=0.92 daily="RES1_2_DU"  
New "Load.BT_1033809_3_M2" bus1="1001033809.1.2.3.4" phases=3 conn=Delta model=3 kv=0.220000000 kw = 0.649541 pf=0.92 status=variable vmaxpu=1.5 vminpu=0.92 daily="RES1_2_DU" 
New "Load.BT_1017506_M1" bus1="1001017506.1.2.3.4" phases=3 conn=Delta model=2 kv=0.220000000 kw = 1.0534585 pf=0.92 status=variable vmaxpu=1.5 vminpu=0.92 daily="COM1_11_DU"  
New "Load.BT_1017506_M2" bus1="1001017506.1.2.3.4" phases=3 conn=Delta model=3 kv=0.220000000 kw = 1.0534585 pf=0.92 status=variable vmaxpu=1.5 vminpu=0.92 daily="COM1_11_DU" 
New "Load.BT_6474843_3_M1" bus1="1006474843.1.2.3.4" phases=3 conn=Delta model=2 kv=0.220000000 kw = 0.417428 pf=0.92 status=variable vmaxpu=1.5 vminpu=0.92 daily="RES1_1_DU"  
New "Load.BT_6474843_3_M2" bus1="1006474843.1.2.3.4" phases=3 conn=Delta model=3 kv=0.220000000 kw = 0.417428 pf=0.92 status=variable vmaxpu=1.5 vminpu=0.92 daily="RES1_1_DU" 
New "Load.BT_1021748_M1" bus1="1001021748.2.4" phases=1 conn=Wye model=2 kv=0.220000000 kw = 0.281421 pf=0.92 status=variable vmaxpu=1.5 vminpu=0.92 daily="RES1_7_DU"  
New "Load.BT_1021748_M2" bus1="1001021748.2.4" phases=1 conn=Wye model=3 kv=0.220000000 kw = 0.281421 pf=0.92 status=variable vmaxpu=1.5 vminpu=0.92 daily="RES1_7_DU" 
New "Load.BT_4138897_M1" bus1="1004138897.1.2.4" phases=1 conn=Delta model=2 kv=0.220000000 kw = 0.8574245 pf=0.92 status=variable vmaxpu=1.5 vminpu=0.92 daily="RES1_3_DU"  
New "Load.BT_4138897_M2" bus1="1004138897.1.2.4" phases=1 conn=Delta model=3 kv=0.220000000 kw = 0.8574245 pf=0.92 status=variable vmaxpu=1.5 vminpu=0.92 daily="RES1_3_DU" 
New "Load.BT_10215124_2_M1" bus1="1010215124.1.2.3.4" phases=3 conn=Delta model=2 kv=0.220000000 kw = 0.0 pf=0.92 status=variable vmaxpu=1.5 vminpu=0.92 daily="RES1_17_DU"  
New "Load.BT_10215124_2_M2" bus1="1010215124.1.2.3.4" phases=3 conn=Delta model=3 kv=0.220000000 kw = 0.0 pf=0.92 status=variable vmaxpu=1.5 vminpu=0.92 daily="RES1_17_DU" 
New "Load.BT_1018962_1_M1" bus1="1001018962.3.4" phases=1 conn=Wye model=2 kv=0.220000000 kw = 0.166815 pf=0.92 status=variable vmaxpu=1.5 vminpu=0.92 daily="RES1_4_DU"  
New "Load.BT_1018962_1_M2" bus1="1001018962.3.4" phases=1 conn=Wye model=3 kv=0.220000000 kw = 0.166815 pf=0.92 status=variable vmaxpu=1.5 vminpu=0.92 daily="RES1_4_DU" 
...